[Format]      =  4.0
[Frequency]   =  0
[Precision]   =  1e-010
[MinAngle]    =  30
[DoSmartMesh] =  1
[Depth]       =  1
[LengthUnits] =  millimeters
[ProblemType] =  axisymmetric
[Coordinates] =  cartesian
[ACSolver]    =  0
[PrevType]    =  0
[PrevSoln]    =  ""
[Comment]     =  "Add comments here."
[PointProps]   = 0
[BdryProps]   = 1
  <BeginBdry>
    <BdryName> = "Outside"
    <BdryType> = 0
    <A_0> = 0
    <A_1> = 0
    <A_2> = 0
    <Phi> = 0
    <c0> = 0
    <c0i> = 0
    <c1> = 0
    <c1i> = 0
    <Mu_ssd> = 0
    <Sigma_ssd> = 0
    <innerangle> = 0
    <outerangle> = 0
  <EndBdry>
[BlockProps]  = 14
  <BeginBlock>
    <BlockName> = "32 AWG"
    <Mu_x> = 1
    <Mu_y> = 1
    <H_c> = 0
    <H_cAngle> = 0
    <J_re> = 0
    <J_im> = 0
    <Sigma> = 58
    <d_lam> = 0
    <Phi_h> = 0
    <Phi_hx> = 0
    <Phi_hy> = 0
    <LamType> = 3
    <LamFill> = 1
    <NStrands> = 1
    <WireD> = 0.20200766618485599
    <BHPoints> = 0
  <EndBlock>
  <BeginBlock>
    <BlockName> = "32 AWG"
    <Mu_x> = 1
    <Mu_y> = 1
    <H_c> = 0
    <H_cAngle> = 0
    <J_re> = 0
    <J_im> = 0
    <Sigma> = 58
    <d_lam> = 0
    <Phi_h> = 0
    <Phi_hx> = 0
    <Phi_hy> = 0
    <LamType> = 3
    <LamFill> = 1
    <NStrands> = 1
    <WireD> = 0.20200766618485599
    <BHPoints> = 0
  <EndBlock>
  <BeginBlock>
    <BlockName> = "32 AWG"
    <Mu_x> = 1
    <Mu_y> = 1
    <H_c> = 0
    <H_cAngle> = 0
    <J_re> = 0
    <J_im> = 0
    <Sigma> = 58
    <d_lam> = 0
    <Phi_h> = 0
    <Phi_hx> = 0
    <Phi_hy> = 0
    <LamType> = 3
    <LamFill> = 1
    <NStrands> = 1
    <WireD> = 0.20200766618485599
    <BHPoints> = 0
  <EndBlock>
  <BeginBlock>
    <BlockName> = "32 AWG"
    <Mu_x> = 1
    <Mu_y> = 1
    <H_c> = 0
    <H_cAngle> = 0
    <J_re> = 0
    <J_im> = 0
    <Sigma> = 58
    <d_lam> = 0
    <Phi_h> = 0
    <Phi_hx> = 0
    <Phi_hy> = 0
    <LamType> = 3
    <LamFill> = 1
    <NStrands> = 1
    <WireD> = 0.20200766618485599
    <BHPoints> = 0
  <EndBlock>
  <BeginBlock>
    <BlockName> = "N40"
    <Mu_x> = 1.05
    <Mu_y> = 1.05
    <H_c> = 969969
    <H_cAngle> = 0
    <J_re> = 0
    <J_im> = 0
    <Sigma> = 0.66700000000000004
    <d_lam> = 0
    <Phi_h> = 0
    <Phi_hx> = 0
    <Phi_hy> = 0
    <LamType> = 0
    <LamFill> = 1
    <NStrands> = 0
    <WireD> = 0
    <BHPoints> = 0
  <EndBlock>
  <BeginBlock>
    <BlockName> = "Pure iron, annealed"
    <Mu_x> = 1
    <Mu_y> = 1
    <H_c> = 0
    <H_cAngle> = 0
    <J_re> = 0
    <J_im> = 0
    <Sigma> = 10.295
    <d_lam> = 0
    <Phi_h> = 0
    <Phi_hx> = 0
    <Phi_hy> = 0
    <LamType> = 0
    <LamFill> = 1
    <NStrands> = 0
    <WireD> = 0
    <BHPoints> = 36
      0	0
      0.058763999999999997	16.290222
      0.10495500000000001	17.877333
      0.110389	18.062888999999998
      0.121257	18.439667
      0.186614	20.872555999999999
      0.229022	22.435777999999999
      0.47273100000000001	31.851111
      0.95170299999999997	62.227221999999998
      1.191549	92.094443999999996
      1.311137	118.011111
      1.327299	122.997778
      1.362771	136.41
      1.443033	176.70333299999999
      1.467546	196.003333
      1.519306	243.648889
      1.526116	251.34555599999999
      1.5975919999999999	409.27777800000001
      1.606725	444.70333299999999
      1.6691	999.49777800000004
      1.691862	1437.5222220000001
      1.742464	2570.9666670000001
      1.781541	3976.1111110000002
      1.819971	5600.1666670000004
      1.8701810000000001	7968.9888890000002
      1.936121	11696.777778
      2.025563	17893.111110999998
      2.108638	27661.222222
      2.1516700000000002	36227.888889000002
      2.172291	41894.555555999999
      2.2846890000000002	106704.44444399999
      2.2964150000000001	115956.666667
      2.4117700000000002	203216.66666700001
      2.4253930000000001	214057.77777799999
      2.5009039999999998	271840
      2.5627680000000002	320990
  <EndBlock>
  <BeginBlock>
    <BlockName> = "Pure iron, annealed"
    <Mu_x> = 1
    <Mu_y> = 1
    <H_c> = 0
    <H_cAngle> = 0
    <J_re> = 0
    <J_im> = 0
    <Sigma> = 10.295
    <d_lam> = 0
    <Phi_h> = 0
    <Phi_hx> = 0
    <Phi_hy> = 0
    <LamType> = 0
    <LamFill> = 1
    <NStrands> = 0
    <WireD> = 0
    <BHPoints> = 36
      0	0
      0.058763999999999997	16.290222
      0.10495500000000001	17.877333
      0.110389	18.062888999999998
      0.121257	18.439667
      0.186614	20.872555999999999
      0.229022	22.435777999999999
      0.47273100000000001	31.851111
      0.95170299999999997	62.227221999999998
      1.191549	92.094443999999996
      1.311137	118.011111
      1.327299	122.997778
      1.362771	136.41
      1.443033	176.70333299999999
      1.467546	196.003333
      1.519306	243.648889
      1.526116	251.34555599999999
      1.5975919999999999	409.27777800000001
      1.606725	444.70333299999999
      1.6691	999.49777800000004
      1.691862	1437.5222220000001
      1.742464	2570.9666670000001
      1.781541	3976.1111110000002
      1.819971	5600.1666670000004
      1.8701810000000001	7968.9888890000002
      1.936121	11696.777778
      2.025563	17893.111110999998
      2.108638	27661.222222
      2.1516700000000002	36227.888889000002
      2.172291	41894.555555999999
      2.2846890000000002	106704.44444399999
      2.2964150000000001	115956.666667
      2.4117700000000002	203216.66666700001
      2.4253930000000001	214057.77777799999
      2.5009039999999998	271840
      2.5627680000000002	320990
  <EndBlock>
  <BeginBlock>
    <BlockName> = "Pure iron, annealed"
    <Mu_x> = 1
    <Mu_y> = 1
    <H_c> = 0
    <H_cAngle> = 0
    <J_re> = 0
    <J_im> = 0
    <Sigma> = 10.295
    <d_lam> = 0
    <Phi_h> = 0
    <Phi_hx> = 0
    <Phi_hy> = 0
    <LamType> = 0
    <LamFill> = 1
    <NStrands> = 0
    <WireD> = 0
    <BHPoints> = 36
      0	0
      0.058763999999999997	16.290222
      0.10495500000000001	17.877333
      0.110389	18.062888999999998
      0.121257	18.439667
      0.186614	20.872555999999999
      0.229022	22.435777999999999
      0.47273100000000001	31.851111
      0.95170299999999997	62.227221999999998
      1.191549	92.094443999999996
      1.311137	118.011111
      1.327299	122.997778
      1.362771	136.41
      1.443033	176.70333299999999
      1.467546	196.003333
      1.519306	243.648889
      1.526116	251.34555599999999
      1.5975919999999999	409.27777800000001
      1.606725	444.70333299999999
      1.6691	999.49777800000004
      1.691862	1437.5222220000001
      1.742464	2570.9666670000001
      1.781541	3976.1111110000002
      1.819971	5600.1666670000004
      1.8701810000000001	7968.9888890000002
      1.936121	11696.777778
      2.025563	17893.111110999998
      2.108638	27661.222222
      2.1516700000000002	36227.888889000002
      2.172291	41894.555555999999
      2.2846890000000002	106704.44444399999
      2.2964150000000001	115956.666667
      2.4117700000000002	203216.66666700001
      2.4253930000000001	214057.77777799999
      2.5009039999999998	271840
      2.5627680000000002	320990
  <EndBlock>
  <BeginBlock>
    <BlockName> = "Pure iron, annealed"
    <Mu_x> = 1
    <Mu_y> = 1
    <H_c> = 0
    <H_cAngle> = 0
    <J_re> = 0
    <J_im> = 0
    <Sigma> = 10.295
    <d_lam> = 0
    <Phi_h> = 0
    <Phi_hx> = 0
    <Phi_hy> = 0
    <LamType> = 0
    <LamFill> = 1
    <NStrands> = 0
    <WireD> = 0
    <BHPoints> = 36
      0	0
      0.058763999999999997	16.290222
      0.10495500000000001	17.877333
      0.110389	18.062888999999998
      0.121257	18.439667
      0.186614	20.872555999999999
      0.229022	22.435777999999999
      0.47273100000000001	31.851111
      0.95170299999999997	62.227221999999998
      1.191549	92.094443999999996
      1.311137	118.011111
      1.327299	122.997778
      1.362771	136.41
      1.443033	176.70333299999999
      1.467546	196.003333
      1.519306	243.648889
      1.526116	251.34555599999999
      1.5975919999999999	409.27777800000001
      1.606725	444.70333299999999
      1.6691	999.49777800000004
      1.691862	1437.5222220000001
      1.742464	2570.9666670000001
      1.781541	3976.1111110000002
      1.819971	5600.1666670000004
      1.8701810000000001	7968.9888890000002
      1.936121	11696.777778
      2.025563	17893.111110999998
      2.108638	27661.222222
      2.1516700000000002	36227.888889000002
      2.172291	41894.555555999999
      2.2846890000000002	106704.44444399999
      2.2964150000000001	115956.666667
      2.4117700000000002	203216.66666700001
      2.4253930000000001	214057.77777799999
      2.5009039999999998	271840
      2.5627680000000002	320990
  <EndBlock>
  <BeginBlock>
    <BlockName> = "Pure iron, annealed"
    <Mu_x> = 1
    <Mu_y> = 1
    <H_c> = 0
    <H_cAngle> = 0
    <J_re> = 0
    <J_im> = 0
    <Sigma> = 10.295
    <d_lam> = 0
    <Phi_h> = 0
    <Phi_hx> = 0
    <Phi_hy> = 0
    <LamType> = 0
    <LamFill> = 1
    <NStrands> = 0
    <WireD> = 0
    <BHPoints> = 36
      0	0
      0.058763999999999997	16.290222
      0.10495500000000001	17.877333
      0.110389	18.062888999999998
      0.121257	18.439667
      0.186614	20.872555999999999
      0.229022	22.435777999999999
      0.47273100000000001	31.851111
      0.95170299999999997	62.227221999999998
      1.191549	92.094443999999996
      1.311137	118.011111
      1.327299	122.997778
      1.362771	136.41
      1.443033	176.70333299999999
      1.467546	196.003333
      1.519306	243.648889
      1.526116	251.34555599999999
      1.5975919999999999	409.27777800000001
      1.606725	444.70333299999999
      1.6691	999.49777800000004
      1.691862	1437.5222220000001
      1.742464	2570.9666670000001
      1.781541	3976.1111110000002
      1.819971	5600.1666670000004
      1.8701810000000001	7968.9888890000002
      1.936121	11696.777778
      2.025563	17893.111110999998
      2.108638	27661.222222
      2.1516700000000002	36227.888889000002
      2.172291	41894.555555999999
      2.2846890000000002	106704.44444399999
      2.2964150000000001	115956.666667
      2.4117700000000002	203216.66666700001
      2.4253930000000001	214057.77777799999
      2.5009039999999998	271840
      2.5627680000000002	320990
  <EndBlock>
  <BeginBlock>
    <BlockName> = "Pure iron, annealed"
    <Mu_x> = 1
    <Mu_y> = 1
    <H_c> = 0
    <H_cAngle> = 0
    <J_re> = 0
    <J_im> = 0
    <Sigma> = 10.295
    <d_lam> = 0
    <Phi_h> = 0
    <Phi_hx> = 0
    <Phi_hy> = 0
    <LamType> = 0
    <LamFill> = 1
    <NStrands> = 0
    <WireD> = 0
    <BHPoints> = 36
      0	0
      0.058763999999999997	16.290222
      0.10495500000000001	17.877333
      0.110389	18.062888999999998
      0.121257	18.439667
      0.186614	20.872555999999999
      0.229022	22.435777999999999
      0.47273100000000001	31.851111
      0.95170299999999997	62.227221999999998
      1.191549	92.094443999999996
      1.311137	118.011111
      1.327299	122.997778
      1.362771	136.41
      1.443033	176.70333299999999
      1.467546	196.003333
      1.519306	243.648889
      1.526116	251.34555599999999
      1.5975919999999999	409.27777800000001
      1.606725	444.70333299999999
      1.6691	999.49777800000004
      1.691862	1437.5222220000001
      1.742464	2570.9666670000001
      1.781541	3976.1111110000002
      1.819971	5600.1666670000004
      1.8701810000000001	7968.9888890000002
      1.936121	11696.777778
      2.025563	17893.111110999998
      2.108638	27661.222222
      2.1516700000000002	36227.888889000002
      2.172291	41894.555555999999
      2.2846890000000002	106704.44444399999
      2.2964150000000001	115956.666667
      2.4117700000000002	203216.66666700001
      2.4253930000000001	214057.77777799999
      2.5009039999999998	271840
      2.5627680000000002	320990
  <EndBlock>
  <BeginBlock>
    <BlockName> = "Pure iron, annealed"
    <Mu_x> = 1
    <Mu_y> = 1
    <H_c> = 0
    <H_cAngle> = 0
    <J_re> = 0
    <J_im> = 0
    <Sigma> = 10.295
    <d_lam> = 0
    <Phi_h> = 0
    <Phi_hx> = 0
    <Phi_hy> = 0
    <LamType> = 0
    <LamFill> = 1
    <NStrands> = 0
    <WireD> = 0
    <BHPoints> = 36
      0	0
      0.058763999999999997	16.290222
      0.10495500000000001	17.877333
      0.110389	18.062888999999998
      0.121257	18.439667
      0.186614	20.872555999999999
      0.229022	22.435777999999999
      0.47273100000000001	31.851111
      0.95170299999999997	62.227221999999998
      1.191549	92.094443999999996
      1.311137	118.011111
      1.327299	122.997778
      1.362771	136.41
      1.443033	176.70333299999999
      1.467546	196.003333
      1.519306	243.648889
      1.526116	251.34555599999999
      1.5975919999999999	409.27777800000001
      1.606725	444.70333299999999
      1.6691	999.49777800000004
      1.691862	1437.5222220000001
      1.742464	2570.9666670000001
      1.781541	3976.1111110000002
      1.819971	5600.1666670000004
      1.8701810000000001	7968.9888890000002
      1.936121	11696.777778
      2.025563	17893.111110999998
      2.108638	27661.222222
      2.1516700000000002	36227.888889000002
      2.172291	41894.555555999999
      2.2846890000000002	106704.44444399999
      2.2964150000000001	115956.666667
      2.4117700000000002	203216.66666700001
      2.4253930000000001	214057.77777799999
      2.5009039999999998	271840
      2.5627680000000002	320990
  <EndBlock>
  <BeginBlock>
    <BlockName> = "Air"
    <Mu_x> = 1
    <Mu_y> = 1
    <H_c> = 0
    <H_cAngle> = 0
    <J_re> = 0
    <J_im> = 0
    <Sigma> = 0
    <d_lam> = 0
    <Phi_h> = 0
    <Phi_hx> = 0
    <Phi_hy> = 0
    <LamType> = 0
    <LamFill> = 1
    <NStrands> = 0
    <WireD> = 0
    <BHPoints> = 0
  <EndBlock>
  <BeginBlock>
    <BlockName> = "Air"
    <Mu_x> = 1
    <Mu_y> = 1
    <H_c> = 0
    <H_cAngle> = 0
    <J_re> = 0
    <J_im> = 0
    <Sigma> = 0
    <d_lam> = 0
    <Phi_h> = 0
    <Phi_hx> = 0
    <Phi_hy> = 0
    <LamType> = 0
    <LamFill> = 1
    <NStrands> = 0
    <WireD> = 0
    <BHPoints> = 0
  <EndBlock>
[CircuitProps]  = 4
  <BeginCircuit>
    <CircuitName> = "UppOutCoil_Circuit"
    <TotalAmps_re> = 0
    <TotalAmps_im> = 0
    <CircuitType> = 1
  <EndCircuit>
  <BeginCircuit>
    <CircuitName> = "LowOutCoil_Circuit"
    <TotalAmps_re> = 0
    <TotalAmps_im> = 0
    <CircuitType> = 1
  <EndCircuit>
  <BeginCircuit>
    <CircuitName> = "Low_Inncoil_Circuit"
    <TotalAmps_re> = 1
    <TotalAmps_im> = 0
    <CircuitType> = 1
  <EndCircuit>
  <BeginCircuit>
    <CircuitName> = "Upp_Inncoil_Circuit"
    <TotalAmps_re> = 0
    <TotalAmps_im> = 0
    <CircuitType> = 1
  <EndCircuit>
[NumPoints] = 45
20.5	12.5	0	1
21.820499999999999	12.5	0	1
21.820499999999999	0.5	0	1
20.5	0.5	0	1
20.5	-0.5	0	2
21.820499999999999	-0.5	0	2
21.820499999999999	-12.5	0	2
20.5	-12.5	0	2
13.550000000000001	-32.75	0	3
15.134600000000001	-32.75	0	3
15.134600000000001	-55.25	0	3
13.550000000000001	-55.25	0	3
13.550000000000001	8.5	0	4
15.134600000000001	8.5	0	4
15.134600000000001	-6.5	0	4
13.550000000000001	-6.5	0	4
24.105	-58.149999999999999	0	10
28.574999999999999	-58.149999999999999	0	9
28.574999999999999	-64.5	0	11
24.105	-64.5	0	11
5	-40.5	0	6
8.25	-40.5	0	7
8.25	-68.5	0	12
5	-68.5	0	6
11	-40.5	0	7
11	-49.5	0	7
8.25	-49.5	0	7
16	-40.5	0	8
28.579999999999998	-40.5	0	8
28.579999999999998	-49.5	0	9
16	-49.5	0	8
22.050000000000001	-49.5	0	9
28.580000000000002	-58.149999999999999	0	9
22.050000000000001	-58.149999999999999	0	10
24.105	-60.149999999999999	0	10
22.050000000000001	-60.149999999999999	0	10
28.574999999999999	-68.5	0	11
24.105	-68.5	0	11
8.25	-62.5	0	12
24.100000000000001	-62.5	0	12
24.100000000000001	-68.5	0	12
0	100	0	0
0	-100	0	0
0	300	0	0
0	-300	0	0
[NumSegments] = 50
0	1	-1	0	0	1
1	2	-1	0	0	1
2	3	-1	0	0	1
3	0	-1	0	0	1
4	5	-1	0	0	2
5	6	-1	0	0	2
6	7	-1	0	0	2
7	4	-1	0	0	2
8	9	-1	0	0	3
9	10	-1	0	0	3
10	11	-1	0	0	3
11	8	-1	0	0	3
12	13	-1	0	0	4
13	14	-1	0	0	4
14	15	-1	0	0	4
15	12	-1	0	0	4
16	17	-1	0	0	9
17	18	-1	0	0	5
18	19	-1	0	0	11
19	34	-1	0	0	5
20	21	-1	0	0	6
21	26	-1	0	0	7
22	23	-1	0	0	6
23	20	-1	0	0	6
21	24	-1	0	0	7
24	25	-1	0	0	7
26	38	-1	0	0	6
25	26	-1	0	0	7
27	28	-1	0	0	8
28	29	-1	0	0	8
29	31	-1	0	0	9
30	27	-1	0	0	8
31	30	-1	0	0	8
29	32	-1	0	0	9
32	17	-1	0	0	9
16	33	-1	0	0	10
33	31	-1	0	0	9
34	16	-1	0	0	10
34	35	-1	0	0	10
35	33	-1	0	0	10
18	36	-1	0	0	11
36	37	-1	0	0	11
37	19	-1	0	0	11
38	22	-1	0	0	12
38	39	-1	0	0	12
39	40	-1	0	0	12
40	22	-1	0	0	12
41	42	-1	0	0	0
43	41	-1	0	0	0
42	44	-1	0	0	0
[NumArcSegments] = 2
42	41	180	2	0	0	0	2
44	43	180	2	1	0	10	2
[NumHoles] = 0
[NumBlockLabels] = 14
20.517800000000001	6.5	4	0.10000000000000001	1	0	1	227	0
20.703199999999999	-6.5	4	0.10000000000000001	2	0	2	227	0
13.5678	-44	4	-1	3	0	3	340	0
13.5678	1	4	-1	4	0	4	340	0
26.34	-61.325000000000003	5	0.10000000000000001	0	90	5	1	0
6.625	-54.5	12	0.10000000000000001	0	0	6	1	0
9.625	-45	12	0.10000000000000001	0	0	7	1	0
22.289999999999999	-45	12	0.10000000000000001	0	0	8	1	0
25.315000000000001	-53.824999999999996	12	0.10000000000000001	0	0	9	1	0
23.077500000000001	-59.149999999999999	12	0.10000000000000001	0	0	10	1	0
26.34	-66.5	12	0.10000000000000001	0	0	11	1	0
16.175000000000001	-65.5	12	0.10000000000000001	0	0	12	1	0
25	50	14	0.5	0	0	0	1	0
150	250	14	-1	0	0	0	1	0
